96
96
C   0.310039  -5.663523  -0.141709
C   0.306057  -5.036628   1.087809
C   0.338460  -5.006131  -1.321260
C   0.352335  -5.620068  -2.369556
C   0.276783  -5.690799   2.073255
C   0.175365  -7.115655  -0.247519
C   1.349585  -7.930899  -0.127225
C  -1.069220  -7.643091  -0.607935
C   1.209272  -9.320586  -0.501837
C  -0.041266  -9.852392  -0.867624
C   2.060268  -9.992931  -0.557985
C  -1.166407  -9.012595  -0.902035
C  -0.243940 -10.911007  -1.000515
C  -2.142435  -9.442745  -1.106328
C   2.714323  -7.374283   0.213524
C  -2.389227  -6.761199  -0.478671
C  -2.983528  -6.702785  -1.878259
C  -2.389915  -6.227037  -2.668498
C  -3.905988  -6.110137  -1.846115
C  -3.317257  -7.682050  -2.242744
C  -3.386021  -7.239756   0.568922
C  -3.993077  -8.075222   0.199237
C  -4.063049  -6.413084   0.816772
C  -2.959340  -7.623918   1.503560
C  -2.093368  -5.774446  -0.101889
C   3.709920  -7.468840  -0.984074
C   3.412410  -6.924637  -1.888796
C   3.896233  -8.519662  -1.237533
C   4.606150  -6.933579  -0.647222
C   3.301363  -8.231523   1.311753
C   3.244806  -9.317020   1.164513
C   2.796493  -8.008031   2.259562
C   4.375954  -8.089070   1.479514
C   2.589916  -6.299305   0.392793
C   0.471780  -3.521109   1.150985
C   0.370221  -3.491656  -1.266063
C   0.451065  -2.810313  -0.036790
C   0.485123  -2.891695   2.385582
C   0.487665  -1.481260   2.451076
C   0.465905  -3.471513   3.303644
C   0.327857  -1.386410   0.012169
C   0.327857  -0.710066   1.233386
C   0.553929  -1.042861   3.442444
C   0.446622  -2.771543  -2.498382
C   0.488451  -1.381793  -2.488518
C   0.416558  -3.309805  -3.441120
C   0.346508  -0.661302  -1.240576
C   0.483954  -0.877915  -3.450538
C   0.413094   0.791397  -1.252584
C   0.314080   0.740982   1.217890
C   0.327857   1.482350   0.012169
C   0.141552   1.463614   2.442206
C   0.274106   2.903888   0.064463
C   0.317122   2.890879   2.508340
C  -0.165648   0.871029   3.298870
C   0.492440   1.536079  -2.391097
C   0.198624   3.590861   1.307313
C   0.183340   3.429128   3.442039
C   0.417498   2.929457  -2.377346
C   0.593872   1.121091  -3.389538
C   0.335185   3.661679  -1.162212
C   0.444140   3.483317  -3.311119
C   0.077566   5.074015   1.336079
C   0.000622   5.116028  -1.124113
C  -0.136420   5.749244   0.133220
C  -0.232392   5.711066  -2.188759
C   0.002896   5.677586   2.318485
C  -0.419832   7.145957   0.284066
C  -1.732402   7.618635   0.107564
C   0.615826   8.030483   0.651540
C  -1.961631   9.031747   0.206691
C   0.334377   9.362157   0.848805
C  -0.926963   9.853600   0.470613
C   1.133878  10.003763   1.207312
C  -1.050053  10.929864   0.547417
C  -2.957322   9.447751   0.084406
C   2.094936   7.497890   0.803102
C   2.793447   7.214756  -0.542096
C   2.116458   6.553352  -1.096544
C   3.787378   6.751681  -0.571415
C   3.027427   8.139050  -1.084427
C   3.047528   8.321520   1.643829
C   3.226156   9.295341   1.171648
C   4.030637   7.873986   1.834619
C   2.610670   8.474685   2.638259
C   2.169678   6.547687   1.345989
C  -2.937235   6.684755   0.070965
C  -3.959517   6.863753   1.245166
C  -3.460592   6.639248   2.195880
C  -4.803054   6.170991   1.136921
C  -4.309772   7.890378   1.082224
C  -3.603170   6.861937  -1.265812
C  -3.694766   7.937526  -1.460506
C  -4.531057   6.297178  -1.418357
C  -2.956944   6.539906  -2.091577
C  -2.688803   5.620614   0.166221
