96
96
C -13.311149 -36.097576   9.101754
C  23.124489  26.150513 -20.557236
C   6.879568  25.271542 -13.029925
C   1.234281   9.554377 -17.929974
C  -5.600874 -19.939796  45.351761
C  38.032303  34.269699  15.470689
C -36.586636 -34.800865 -34.295521
C -41.519997   6.552793  24.764708
C  -1.428108  17.259075  -0.262650
C -18.857315  12.991015  11.133058
C   2.466328   3.142442   6.638677
C  -0.606188  -2.515098   0.413807
C  15.183849  -2.497886  -8.087855
C   0.612449  -0.451669  -3.324025
C  -0.157155  -3.107551 -50.667480
C  69.787605 -25.280680  -7.190229
C -39.583302  15.042758 -18.263676
C  11.697453  -2.474750   6.887714
C  -0.685075   2.293167   2.750223
C   5.812607  -3.562941   0.134456
C -20.146114 -16.522625   7.434745
C  -2.094212   1.278405  -4.432238
C  -4.106019   0.342295   1.198706
C  10.411462   7.704165  -1.223688
C -11.602039   4.803489 -10.355611
C  -9.432281  13.828463  11.507949
C -10.464767  -2.745183   1.523089
C   8.757264   1.357175  -2.858938
C   9.466312 -10.865513  -5.056286
C  16.991592  -4.575125  45.712837
C  -7.143229   1.710685  -5.292181
C  -0.918505  -0.702135   0.281628
C  -0.661218  12.623314  -2.446335
C  17.005714  -5.086637  20.494604
C -17.675165 -51.571819  -8.010761
C  16.839928  -4.108162 -26.721302
C -24.448881  35.860798  -4.680650
C  -1.632669  25.231968  11.030272
C -14.758462   0.732306 -26.037306
C   0.406121  -3.585731   0.565967
C  18.281952  -8.900117 -52.379807
C  17.724195  27.499371  29.619144
C   0.079239   4.079998  -3.244742
C  -8.203558 -16.334925  27.278145
C -20.714415  17.549831  28.430698
C   3.046127  -1.168846  -2.061719
C  28.351593  14.416738 -14.327661
C   4.303213  -2.761377   2.419402
C -17.575895 -43.126865  76.895538
C -23.203770 -12.272294  25.219412
C  13.300494 -12.301715 -17.857908
C  19.007118   3.781530 -16.707069
C   8.407301  14.709862 -21.460588
C -40.940140 -42.901718  -3.837784
C  10.175020  15.195679  10.733821
C   4.028421  26.815767 -51.736061
C  24.978432  -3.173613 -20.732086
C   4.286713  -1.359216   3.673489
C   7.515903  26.427492  16.632608
C  -0.977001  -6.403955   5.441042
C -22.677572 -44.569798  34.319649
C  -1.604434  -0.322115  -2.699784
C -23.356678 -21.051828 -77.827202
C -19.174463  35.366955 -22.574354
C  20.189272 -22.595152   4.665194
C   9.501098  -9.431216  23.965456
C   2.174857  22.651882  90.193733
C   0.937927  -9.823874 -27.740746
C  -7.236525  31.123632  30.412851
C  38.157814 -35.589565  -0.061497
C -25.239994 -54.644230 -17.755651
C  -4.073422   9.904377 -12.793557
C  49.042545  47.373596  31.353607
C  -7.126219  10.260002  -5.338741
C -10.468718  -0.191080  -1.496082
C  -0.185853   0.140646  -0.754878
C  14.971320 -14.068843   0.833536
C  -4.224596   4.148944 -20.940432
C   9.605088   7.458233 -10.945107
C  -3.134253  -9.102614  21.556334
C -16.508392   2.793189  -3.157112
C   2.639500  27.105310  18.376913
C   0.724324   1.884118   2.793763
C  -1.471656  -7.596914  -7.421257
C  -1.379796   4.457630  -0.481842
C -14.312794  -0.410829  -2.703560
C -14.665786 -26.629509  16.709330
C  20.194653   2.377664 -37.658348
C  -2.631199  12.193049   5.209605
C  -1.122486   0.843046  -0.201650
C  -7.309734   0.744627  23.555864
C   2.854141   5.875343 -36.413593
C -17.855961  -2.436941  -2.374519
C  -4.721213   5.097840   8.734068
C   5.061093  -4.687691   4.473211
C  10.605932   2.215109  -5.603804
